REMARK  6 active torsions:
REMARK  status: ('A' for Active; 'I' for Inactive)
REMARK    1  A    between atoms: N_5  and  C_8 
REMARK       I    between atoms: N_5  and  C_10 
REMARK    2  A    between atoms: N_6  and  C_9 
REMARK       I    between atoms: N_6  and  C_11 
REMARK    3  A    between atoms: C_7  and  C_8 
REMARK    4  A    between atoms: C_7  and  C_9 
REMARK    5  A    between atoms: C_10  and  C_12 
REMARK    6  A    between atoms: C_11  and  C_13 
ROOT
HETATM    1  C   UNL     1       0.859  -3.491  -0.741  1.00  0.00     0.039 C 
ENDROOT
BRANCH   1   2
HETATM    2  C   UNL     1       2.116  -2.897  -0.079  1.00  0.00     0.124 C 
BRANCH   2   3
HETATM    3  N   UNL     1       1.754  -1.874   0.911  1.00  0.00    -0.360 N 
HETATM    4  C   UNL     1       2.606  -1.137   1.658  1.00  0.00     0.231 C 
HETATM    5  O   UNL     1       2.165  -0.309   2.426  1.00  0.00    -0.272 OA
HETATM    6  H   UNL     1       0.768  -1.710   1.042  1.00  0.00     0.162 HD
BRANCH   4   7
HETATM    7  C   UNL     1       4.100  -1.322   1.470  1.00  0.00     0.217 C 
HETATM    8 CL   UNL     1       4.753  -0.326   0.136  1.00  0.00    -0.121 Cl
ENDBRANCH   4   7
ENDBRANCH   2   3
ENDBRANCH   1   2
BRANCH   1   9
HETATM    9  C   UNL     1       1.218  -4.595  -1.755  1.00  0.00     0.124 C 
BRANCH   9  10
HETATM   10  N   UNL     1       0.015  -5.197  -2.349  1.00  0.00    -0.360 N 
HETATM   11  C   UNL     1      -0.632  -4.797  -3.469  1.00  0.00     0.231 C 
HETATM   12  O   UNL     1      -1.629  -5.390  -3.824  1.00  0.00    -0.272 OA
HETATM   13  H   UNL     1      -0.382  -5.976  -1.847  1.00  0.00     0.162 HD
BRANCH  11  14
HETATM   14  C   UNL     1      -0.061  -3.656  -4.291  1.00  0.00     0.217 C 
HETATM   15 CL   UNL     1       1.174  -4.206  -5.461  1.00  0.00    -0.121 Cl
ENDBRANCH  11  14
ENDBRANCH   9  10
ENDBRANCH   1   9
TORSDOF 6
